<?xml version="1.0" encoding="UTF-8"?>

<!-- generated on 2026-07-16T00:15:42.762185-03:00 by Eclipse SUMO netedit 1.27.1
<neteditConfiguration xmlns:xsi="http://www.w3.org/2001/XMLSchema-instance" xsi:noNamespaceSchemaLocation="http://sumo.dlr.de/xsd/neteditConfiguration.xsd">

    <input>
        <sumo-net-file value="belem.net.xml"/>
    </input>

    <output>
        <output-file value="belem.net.xml"/>
    </output>

    <processing>
        <geometry.min-radius.fix.railways value="false"/>
        <geometry.avoid-overlap value="false"/>
        <geometry.max-grade.fix value="false"/>
        <offset.disable-normalization value="true"/>
    </processing>

    <junctions>
        <no-turnarounds value="true"/>
    </junctions>

</neteditConfiguration>
-->

<net version="1.20" junctionCornerDetail="5" limitTurnSpeed="5.50" avoidOverlap="0" xmlns:xsi="http://www.w3.org/2001/XMLSchema-instance" xsi:noNamespaceSchemaLocation="http://sumo.dlr.de/xsd/net_file.xsd">

    <location netOffset="-782097.01,159355.82" convBoundary="0.00,0.00,1330.80,1198.66" origBoundary="-48.464908,-1.445497,-48.452952,-1.428094" projParameter="+proj=utm +zone=22 +ellps=WGS84 +datum=WGS84 +units=m +no_defs"/>

    <type id="highway.primary" priority="12" numLanes="2" speed="27.78" disallow="tram rail_urban rail rail_electric rail_fast ship container cable_car subway aircraft wheelchair scooter drone" oneway="0"/>
    <type id="highway.primary_link" priority="7" numLanes="1" speed="22.22" disallow="tram rail_urban rail rail_electric rail_fast ship container cable_car subway aircraft wheelchair scooter drone" oneway="0"/>
    <type id="highway.residential" priority="3" numLanes="1" speed="13.89" disallow="tram rail_urban rail rail_electric rail_fast ship container cable_car subway aircraft wheelchair scooter drone" oneway="0"/>
    <type id="highway.secondary" priority="11" numLanes="1" speed="27.78" disallow="tram rail_urban rail rail_electric rail_fast ship container cable_car subway aircraft wheelchair scooter drone" oneway="0"/>
    <type id="highway.tertiary" priority="10" numLanes="1" speed="22.22" disallow="tram rail_urban rail rail_electric rail_fast ship container cable_car subway aircraft wheelchair scooter drone" oneway="0"/>
    <type id="highway.trunk" priority="13" numLanes="2" speed="27.78" disallow="pedestrian bicycle tram rail_urban rail rail_electric rail_fast ship container cable_car subway aircraft wheelchair scooter drone" oneway="0"/>

    <edge id=":10054650699_0" function="internal">
        <lane id=":10054650699_0_0" index="0" disallow="tram rail_urban rail rail_electric rail_fast ship container cable_car subway aircraft wheelchair scooter drone" speed="11.11" length="9.44" shape="505.67,488.98 497.84,494.24"/>
        <lane id=":10054650699_0_1" index="1" disallow="tram rail_urban rail rail_electric rail_fast ship container cable_car subway aircraft wheelchair scooter drone" speed="11.11" length="9.44" shape="503.89,486.32 496.05,491.58"/>
    </edge>
    <edge id=":10054650699_2" function="internal">
        <lane id=":10054650699_2_0" index="0" disallow="tram rail_urban rail rail_electric rail_fast ship container cable_car subway aircraft wheelchair scooter drone" speed="5.98" length="8.06" shape="503.89,486.32 501.42,487.71 499.42,488.24 497.88,487.92 496.81,486.74"/>
    </edge>
    <edge id=":10054650699_3" function="internal">
        <lane id=":10054650699_3_0" index="0" disallow="tram rail_urban rail rail_electric rail_fast ship container cable_car subway aircraft wheelchair scooter drone" speed="6.38" length="7.95" shape="499.64,485.25 499.99,486.73 499.50,488.28 498.19,489.90 496.05,491.58"/>
    </edge>
    <edge id=":1409724097_0" function="internal">
        <lane id=":1409724097_0_0" index="0" disallow="tram rail_urban rail rail_electric rail_fast ship container cable_car subway aircraft wheelchair scooter drone" speed="6.65" length="9.18" shape="935.91,413.65 934.19,411.78 932.29,410.87 930.22,410.92 927.97,411.92"/>
    </edge>
    <edge id=":1409724097_1" function="internal">
        <lane id=":1409724097_1_0" index="0" disallow="tram rail_urban rail rail_electric rail_fast ship container cable_car subway aircraft wheelchair scooter drone" speed="6.47" length="9.03" shape="940.00,404.07 938.16,405.73 937.30,407.58 937.42,409.61 938.54,411.83"/>
    </edge>
    <edge id=":1409724097_2" function="internal">
        <lane id=":1409724097_2_0" index="0" disallow="tram rail_urban rail rail_electric rail_fast ship container cable_car subway aircraft wheelchair scooter drone" speed="11.11" length="14.36" shape="940.00,404.07 927.97,411.92"/>
    </edge>
    <edge id=":1409724113_0" function="internal">
        <lane id=":1409724113_0_0" index="0" disallow="tram rail_urban rail rail_electric rail_fast ship container cable_car subway aircraft wheelchair scooter drone" speed="22.22" length="9.26" shape="1030.39,539.84 1022.71,544.80"/>
        <lane id=":1409724113_0_1" index="1" disallow="tram rail_urban rail rail_electric rail_fast ship container cable_car subway aircraft wheelchair scooter drone" speed="22.22" length="9.26" shape="1028.70,537.12 1020.93,542.14"/>
        <lane id=":1409724113_0_2" index="2" disallow="tram rail_urban rail rail_electric rail_fast ship container cable_car subway aircraft wheelchair scooter drone" speed="22.22" length="9.26" shape="1027.01,534.40 1019.15,539.48"/>
    </edge>
    <edge id=":1409724113_3" function="internal">
        <lane id=":1409724113_3_0" index="0" disallow="tram rail_urban rail rail_electric rail_fast ship container cable_car subway aircraft wheelchair scooter drone" speed="6.27" length="7.81" shape="1027.01,534.40 1024.60,535.67 1022.61,536.23 1021.05,536.05 1019.91,535.16"/>
    </edge>
    <edge id=":1409724113_4" function="internal">
        <lane id=":1409724113_4_0" index="0" disallow="tram rail_urban rail rail_electric rail_fast ship container cable_car subway aircraft wheelchair scooter drone" speed="6.83" length="10.38" shape="1022.49,533.27 1023.84,535.79 1024.03,538.11 1023.06,540.23 1020.93,542.14"/>
        <lane id=":1409724113_4_1" index="1" disallow="tram rail_urban rail rail_electric rail_fast ship container cable_car subway aircraft wheelchair scooter drone" speed="6.04" length="7.88" shape="1022.49,533.27 1023.02,534.66 1022.64,536.16 1021.35,537.76 1019.15,539.48"/>
    </edge>
    <edge id=":1409724114_0" function="internal">
        <lane id=":1409724114_0_0" index="0" disallow="bicycle tram rail_urban rail rail_electric rail_fast ship container cable_car subway aircraft wheelchair scooter drone" speed="6.59" length="9.28" shape="849.06,611.40 847.12,613.14 846.19,615.05 846.27,617.12 847.34,619.35"/>
    </edge>
    <edge id=":1409724114_1" function="internal">
        <lane id=":1409724114_1_0" index="0" disallow="bicycle tram rail_urban rail rail_electric rail_fast ship container cable_car subway aircraft wheelchair scooter drone" speed="6.51" length="9.10" shape="839.26,607.42 840.93,609.26 842.79,610.11 844.85,609.98 847.10,608.86"/>
    </edge>
    <edge id=":1409724114_2" function="internal">
        <lane id=":1409724114_2_0" index="0" disallow="bicycle tram rail_urban rail rail_electric rail_fast ship container cable_car subway aircraft wheelchair scooter drone" speed="13.89" length="14.44" shape="839.26,607.42 847.34,619.35"/>
        <lane id=":1409724114_2_1" index="1" disallow="bicycle tram rail_urban rail rail_electric rail_fast ship container cable_car subway aircraft wheelchair scooter drone" speed="13.89" length="14.44" shape="836.61,609.20 844.70,621.16"/>
        <lane id=":1409724114_2_2" index="2" disallow="bicycle tram rail_urban rail rail_electric rail_fast ship container cable_car subway aircraft wheelchair scooter drone" speed="13.89" length="14.44" shape="833.95,610.99 842.06,622.96"/>
    </edge>
    <edge id=":1409724117_0" function="internal">
        <lane id=":1409724117_0_0" index="0" disallow="tram rail_urban rail rail_electric rail_fast ship container cable_car subway aircraft wheelchair scooter drone" speed="22.22" length="9.49" shape="1079.85,508.97 1071.79,514.09"/>
        <lane id=":1409724117_0_1" index="1" disallow="tram rail_urban rail rail_electric rail_fast ship container cable_car subway aircraft wheelchair scooter drone" speed="22.22" length="9.49" shape="1078.11,506.28 1070.10,511.37"/>
        <lane id=":1409724117_0_2" index="2" disallow="tram rail_urban rail rail_electric rail_fast ship container cable_car subway aircraft wheelchair scooter drone" speed="22.22" length="9.49" shape="1076.37,503.60 1068.41,508.66"/>
    </edge>
    <edge id=":1409724117_3" function="internal">
        <lane id=":1409724117_3_0" index="0" disallow="tram rail_urban rail rail_electric rail_fast ship container cable_car subway aircraft wheelchair scooter drone" speed="6.05" length="7.83" shape="1076.37,503.60 1073.93,504.94 1071.96,505.50 1070.43,505.29 1069.36,504.30"/>
    </edge>
    <edge id=":1409724117_4" function="internal">
        <lane id=":1409724117_4_0" index="0" disallow="tram rail_urban rail rail_electric rail_fast ship container cable_car subway aircraft wheelchair scooter drone" speed="6.90" length="10.21" shape="1072.09,502.63 1073.21,505.21 1073.26,507.53 1072.22,509.59 1070.10,511.37"/>
        <lane id=":1409724117_4_1" index="1" disallow="tram rail_urban rail rail_electric rail_fast ship container cable_car subway aircraft wheelchair scooter drone" speed="6.11" length="7.81" shape="1072.09,502.63 1072.48,504.02 1072.00,505.49 1070.64,507.03 1068.41,508.66"/>
    </edge>
    <edge id=":1409724121_0" function="internal">
        <lane id=":1409724121_0_0" index="0" disallow="tram rail_urban rail rail_electric rail_fast ship container cable_car subway aircraft wheelchair scooter drone" speed="6.57" length="8.98" shape="1003.26,512.47 1001.55,510.73 999.67,509.94 997.63,510.09 995.43,511.18"/>
    </edge>
    <edge id=":1409724121_1" function="internal">
        <lane id=":1409724121_1_0" index="0" disallow="tram rail_urban rail rail_electric rail_fast ship container cable_car subway aircraft wheelchair scooter drone" speed="5.56" length="14.21" shape="1003.26,512.47 995.12,500.82"/>
    </edge>
    <edge id=":1409724121_2" function="internal">
        <lane id=":1409724121_2_0" index="0" disallow="tram rail_urban rail rail_electric rail_fast ship container cable_car subway aircraft wheelchair scooter drone" speed="5.56" length="14.06" shape="997.79,499.05 1005.84,510.58"/>
    </edge>
    <edge id=":1409724121_3" function="internal">
        <lane id=":1409724121_3_0" index="0" disallow="tram rail_urban rail rail_electric rail_fast ship container cable_car subway aircraft wheelchair scooter drone" speed="8.00" length="14.05" shape="997.79,499.05 999.44,502.52 999.60,505.70 998.26,508.58 995.43,511.18"/>
    </edge>
    <edge id=":1409724121_4" function="internal">
        <lane id=":1409724121_4_0" index="0" disallow="tram rail_urban rail rail_electric rail_fast ship container cable_car subway aircraft wheelchair scooter drone" speed="6.51" length="8.94" shape="993.62,508.54 995.42,506.89 996.27,505.05 996.17,503.03 995.12,500.82"/>
    </edge>
    <edge id=":1409724121_5" function="internal">
        <lane id=":1409724121_5_0" index="0" disallow="tram rail_urban rail rail_electric rail_fast ship container cable_car subway aircraft wheelchair scooter drone" speed="8.05" length="14.02" shape="993.62,508.54 997.06,506.84 1000.24,506.61 1003.17,507.85 1005.84,510.58"/>
    </edge>
    <edge id=":1529384214_0" function="internal">
        <lane id=":1529384214_0_0" index="0" disallow="tram rail_urban rail rail_electric rail_fast ship container cable_car subway aircraft wheelchair scooter drone" speed="16.67" length="9.80" shape="1040.24,332.29 1034.88,324.08"/>
        <lane id=":1529384214_0_1" index="1" disallow="tram rail_urban rail rail_electric rail_fast ship container cable_car subway aircraft wheelchair scooter drone" speed="16.67" length="9.80" shape="1042.92,330.54 1037.56,322.33"/>
        <lane id=":1529384214_0_2" index="2" disallow="tram rail_urban rail rail_electric rail_fast ship container cable_car subway aircraft wheelchair scooter drone" speed="16.67" length="9.80" shape="1045.60,328.79 1040.24,320.58"/>
    </edge>
    <edge id=":1529384214_3" function="internal">
        <lane id=":1529384214_3_0" index="0" disallow="tram rail_urban rail rail_electric rail_fast ship container cable_car subway aircraft wheelchair scooter drone" speed="6.50" length="9.03" shape="1033.24,331.82 1035.11,330.20 1036.00,328.36 1035.93,326.32 1034.88,324.08"/>
    </edge>
    <edge id=":1756828360_0" function="internal">
        <lane id=":1756828360_0_0" index="0" disallow="tram rail_urban rail rail_electric rail_fast ship container cable_car subway aircraft wheelchair scooter drone" speed="7.27" length="7.29" shape="488.81,706.99 487.16,708.37 486.05,709.84 485.47,711.40 485.42,713.04"/>
        <lane id=":1756828360_0_1" index="1" disallow="tram rail_urban rail rail_electric rail_fast ship container cable_car subway aircraft wheelchair scooter drone" speed="8.72" length="10.78" shape="486.97,704.37 484.64,706.36 483.08,708.54 482.29,710.90 482.25,713.45"/>
    </edge>
    <edge id=":1756828360_2" function="internal">
        <lane id=":1756828360_2_0" index="0" disallow="tram rail_urban rail rail_electric rail_fast ship container cable_car subway aircraft wheelchair scooter drone" speed="11.11" length="9.42" shape="481.64,703.76 483.34,706.25 484.36,708.08 484.96,710.07 485.42,713.04"/>
        <lane id=":1756828360_2_1" index="1" disallow="tram rail_urban rail rail_electric rail_fast ship container cable_car subway aircraft wheelchair scooter drone" speed="11.11" length="9.42" shape="479.01,705.58 480.46,707.69 481.33,709.25 481.85,710.93 482.25,713.45"/>
    </edge>
    <edge id=":1756828375_0" function="internal">
        <lane id=":1756828375_0_0" index="0" disallow="tram rail_urban rail rail_electric rail_fast ship container cable_car subway aircraft wheelchair scooter drone" speed="5.66" length="6.41" shape="457.44,731.26 456.70,730.86 455.50,731.05 453.83,731.81 451.70,733.15"/>
        <lane id=":1756828375_0_1" index="1" disallow="tram rail_urban rail rail_electric rail_fast ship container cable_car subway aircraft wheelchair scooter drone" speed="6.44" length="8.58" shape="457.44,731.26 455.87,729.74 454.09,729.11 452.09,729.37 449.88,730.52"/>
    </edge>
    <edge id=":1756828375_2" function="internal">
        <lane id=":1756828375_2_0" index="0" disallow="tram rail_urban rail rail_electric rail_fast ship container cable_car subway aircraft wheelchair scooter drone" speed="11.11" length="9.30" shape="457.44,731.26 451.76,723.95"/>
        <lane id=":1756828375_2_1" index="1" disallow="tram rail_urban rail rail_electric rail_fast ship container cable_car subway aircraft wheelchair scooter drone" speed="11.11" length="9.30" shape="460.01,729.35 454.27,721.96"/>
    </edge>
    <edge id=":1756828384_0" function="internal">
        <lane id=":1756828384_0_0" index="0" disallow="bicycle tram rail_urban rail rail_electric rail_fast ship container cable_car subway aircraft wheelchair scooter drone" speed="6.50" length="9.03" shape="751.24,532.20 749.58,530.37 747.73,529.51 745.69,529.62 743.47,530.71"/>
        <lane id=":1756828384_0_1" index="1" disallow="bicycle tram rail_urban rail rail_electric rail_fast ship container cable_car subway aircraft wheelchair scooter drone" speed="7.32" length="11.73" shape="751.24,532.20 748.79,529.21 746.38,527.52 744.01,527.14 741.67,528.07"/>
    </edge>
    <edge id=":1756828384_2" function="internal">
        <lane id=":1756828384_2_0" index="0" disallow="bicycle tram rail_urban rail rail_electric rail_fast ship container cable_car subway aircraft wheelchair scooter drone" speed="13.89" length="11.88" shape="751.24,532.20 744.58,522.37"/>
        <lane id=":1756828384_2_1" index="1" disallow="bicycle tram rail_urban rail rail_electric rail_fast ship container cable_car subway aircraft wheelchair scooter drone" speed="13.89" length="11.88" shape="753.89,530.41 747.23,520.57"/>
        <lane id=":1756828384_2_2" index="2" disallow="bicycle tram rail_urban rail rail_electric rail_fast ship container cable_car subway aircraft wheelchair scooter drone" speed="13.89" length="11.88" shape="756.54,528.62 749.88,518.77"/>
    </edge>
    <edge id=":1756840319_0" function="internal">
        <lane id=":1756840319_0_0" index="0" disallow="tram rail_urban rail rail_electric rail_fast ship container cable_car subway aircraft wheelchair scooter drone" speed="11.11" length="9.84" shape="451.64,723.80 445.65,715.86"/>
        <lane id=":1756840319_0_1" index="1" disallow="tram rail_urban rail rail_electric rail_fast ship container cable_car subway aircraft wheelchair scooter drone" speed="11.11" length="9.84" shape="454.14,721.80 448.27,714.02"/>
    </edge>
    <edge id=":1756840319_2" function="internal">
        <lane id=":1756840319_2_0" index="0" disallow="tram rail_urban rail rail_electric rail_fast ship container cable_car subway aircraft wheelchair scooter drone" speed="5.66" length="6.72" shape="442.37,721.01 444.35,719.53 445.55,718.17 445.99,716.95 445.65,715.86"/>
        <lane id=":1756840319_2_1" index="1" disallow="tram rail_urban rail rail_electric rail_fast ship container cable_car subway aircraft wheelchair scooter drone" speed="7.30" length="11.89" shape="444.13,723.69 447.19,721.24 448.90,718.81 449.26,716.41 448.27,714.02"/>
    </edge>
    <edge id=":1756840325_0" function="internal">
        <lane id=":1756840325_0_0" index="0" disallow="tram rail_urban rail rail_electric rail_fast ship container cable_car subway aircraft wheelchair scooter drone" speed="6.62" length="6.02" shape="475.51,697.45 476.47,697.68 477.71,697.47 479.23,696.81 481.03,695.70"/>
        <lane id=":1756840325_0_1" index="1" disallow="tram rail_urban rail rail_electric rail_fast ship container cable_car subway aircraft wheelchair scooter drone" speed="7.42" length="7.74" shape="475.51,697.45 477.76,698.49 479.74,698.99 481.43,698.94 482.84,698.34"/>
    </edge>
    <edge id=":1756840325_2" function="internal">
        <lane id=":1756840325_2_0" index="0" disallow="tram rail_urban rail rail_electric rail_fast ship container cable_car subway aircraft wheelchair scooter drone" speed="11.11" length="8.00" shape="475.51,697.45 477.69,698.79 479.01,699.97 480.08,701.43 481.53,703.60"/>
        <lane id=":1756840325_2_1" index="1" disallow="tram rail_urban rail rail_electric rail_fast ship container cable_car subway aircraft wheelchair scooter drone" speed="11.11" length="8.00" shape="473.97,700.26 475.77,701.37 476.84,702.38 477.71,703.61 478.90,705.42"/>
    </edge>
    <edge id=":1756840330_0" function="internal">
        <lane id=":1756840330_0_0" index="0" disallow="tram rail_urban rail rail_electric rail_fast ship container cable_car subway aircraft wheelchair scooter drone" speed="6.34" length="9.04" shape="656.34,975.16 657.89,977.13 659.67,978.07 661.68,977.98 663.92,976.86"/>
        <lane id=":1756840330_0_1" index="1" disallow="tram rail_urban rail rail_electric rail_fast ship container cable_car subway aircraft wheelchair scooter drone" speed="7.17" length="11.88" shape="656.34,975.16 658.61,978.33 660.93,980.11 663.31,980.50 665.75,979.49"/>
        <lane id=":1756840330_0_2" index="2" disallow="tram rail_urban rail rail_electric rail_fast ship container cable_car subway aircraft wheelchair scooter drone" speed="7.95" length="14.84" shape="656.34,975.16 659.32,979.54 662.19,982.16 664.94,983.02 667.57,982.12"/>
    </edge>
    <edge id=":2171937954_0" function="internal">
        <lane id=":2171937954_0_0" index="0" disallow="bicycle tram rail_urban rail rail_electric rail_fast ship container cable_car subway aircraft wheelchair scooter drone" speed="13.89" length="11.88" shape="744.47,522.20 737.79,512.38"/>
        <lane id=":2171937954_0_1" index="1" disallow="bicycle tram rail_urban rail rail_electric rail_fast ship container cable_car subway aircraft wheelchair scooter drone" speed="13.89" length="11.88" shape="747.12,520.40 740.44,510.58"/>
        <lane id=":2171937954_0_2" index="2" disallow="bicycle tram rail_urban rail rail_electric rail_fast ship container cable_car subway aircraft wheelchair scooter drone" speed="13.89" length="11.88" shape="749.76,518.61 743.08,508.78"/>
    </edge>
    <edge id=":2171937954_3" function="internal">
        <lane id=":2171937954_3_0" index="0" disallow="bicycle tram rail_urban rail rail_electric rail_fast ship container cable_car subway aircraft wheelchair scooter drone" speed="6.50" length="9.03" shape="736.29,520.15 738.13,518.49 738.99,516.64 738.88,514.60 737.79,512.38"/>
        <lane id=":2171937954_3_1" index="1" disallow="bicycle tram rail_urban rail rail_electric rail_fast ship container cable_car subway aircraft wheelchair scooter drone" speed="7.99" length="14.21" shape="738.08,522.80 740.97,520.19 742.33,517.28 742.15,514.08 740.44,510.58"/>
    </edge>
    <edge id=":2173956106_0" function="internal">
        <lane id=":2173956106_0_0" index="0" disallow="tram rail_urban rail rail_electric rail_fast ship container cable_car subway aircraft wheelchair scooter drone" speed="6.51" length="9.10" shape="195.45,906.78 193.58,908.46 192.69,910.32 192.79,912.36 193.88,914.59"/>
        <lane id=":2173956106_0_1" index="1" disallow="tram rail_urban rail rail_electric rail_fast ship container cable_car subway aircraft wheelchair scooter drone" speed="8.00" length="14.29" shape="193.67,904.13 190.74,906.75 189.36,909.67 189.52,912.89 191.23,916.39"/>
    </edge>
    <edge id=":2173956106_2" function="internal">
        <lane id=":2173956106_2_0" index="0" disallow="tram rail_urban rail rail_electric rail_fast ship container cable_car subway aircraft wheelchair scooter drone" speed="16.67" length="13.92" shape="186.34,903.04 193.88,914.59"/>
        <lane id=":2173956106_2_1" index="1" disallow="tram rail_urban rail rail_electric rail_fast ship container cable_car subway aircraft wheelchair scooter drone" speed="16.67" length="13.92" shape="183.62,904.74 191.23,916.39"/>
        <lane id=":2173956106_2_2" index="2" disallow="tram rail_urban rail rail_electric rail_fast ship container cable_car subway aircraft wheelchair scooter drone" speed="16.67" length="13.92" shape="180.91,906.43 188.59,918.19"/>
    </edge>
    <edge id=":2173956108_0" function="internal">
        <lane id=":2173956108_0_0" index="0" disallow="tram rail_urban rail rail_electric rail_fast ship container cable_car subway aircraft wheelchair scooter drone" speed="6.51" length="9.03" shape="178.90,891.30 180.51,893.17 182.34,894.08 184.38,894.02 186.63,892.99"/>
        <lane id=":2173956108_0_1" index="1" disallow="tram rail_urban rail rail_electric rail_fast ship container cable_car subway aircraft wheelchair scooter drone" speed="7.33" length="11.72" shape="178.90,891.30 181.27,894.35 183.64,896.10 186.00,896.54 188.36,895.68"/>
    </edge>
    <edge id=":2173956108_2" function="internal">
        <lane id=":2173956108_2_0" index="0" disallow="tram rail_urban rail rail_electric rail_fast ship container cable_car subway aircraft wheelchair scooter drone" speed="16.67" length="13.66" shape="178.90,891.30 186.23,902.87"/>
        <lane id=":2173956108_2_1" index="1" disallow="tram rail_urban rail rail_electric rail_fast ship container cable_car subway aircraft wheelchair scooter drone" speed="16.67" length="13.66" shape="176.20,893.03 183.51,904.57"/>
        <lane id=":2173956108_2_2" index="2" disallow="tram rail_urban rail rail_electric rail_fast ship container cable_car subway aircraft wheelchair scooter drone" speed="16.67" length="13.66" shape="173.51,894.76 180.80,906.26"/>
    </edge>
    <edge id=":2713455438_0" function="internal">
        <lane id=":2713455438_0_0" index="0" disallow="tram rail_urban rail rail_electric rail_fast ship container cable_car subway aircraft wheelchair scooter drone" speed="6.56" length="8.93" shape="579.43,836.96 577.63,838.56 576.74,840.38 576.79,842.42 577.75,844.68"/>
    </edge>
    <edge id=":2713455438_1" function="internal">
        <lane id=":2713455438_1_0" index="0" disallow="tram rail_urban rail rail_electric rail_fast ship container cable_car subway aircraft wheelchair scooter drone" speed="22.22" length="11.03" shape="579.43,836.96 570.29,843.03"/>
        <lane id=":2713455438_1_1" index="1" disallow="tram rail_urban rail rail_electric rail_fast ship container cable_car subway aircraft wheelchair scooter drone" speed="22.22" length="11.03" shape="577.69,834.28 568.50,840.38"/>
        <lane id=":2713455438_1_2" index="2" disallow="tram rail_urban rail rail_electric rail_fast ship container cable_car subway aircraft wheelchair scooter drone" speed="22.22" length="11.03" shape="575.94,831.60 566.71,837.72"/>
    </edge>
    <edge id=":2713455438_4" function="internal">
        <lane id=":2713455438_4_0" index="0" disallow="tram rail_urban rail rail_electric rail_fast ship container cable_car subway aircraft wheelchair scooter drone" speed="11.11" length="17.43" shape="568.28,830.05 577.75,844.68"/>
    </edge>
    <edge id=":2713455438_5" function="internal">
        <lane id=":2713455438_5_0" index="0" disallow="tram rail_urban rail rail_electric rail_fast ship container cable_car subway aircraft wheelchair scooter drone" speed="7.27" length="11.66" shape="568.28,830.05 570.15,833.37 570.82,836.20 570.27,838.53 568.50,840.38"/>
        <lane id=":2713455438_5_1" index="1" disallow="tram rail_urban rail rail_electric rail_fast ship container cable_car subway aircraft wheelchair scooter drone" speed="6.45" length="8.96" shape="568.28,830.05 569.35,832.22 569.45,834.22 568.57,836.06 566.71,837.72"/>
    </edge>
    <edge id=":370205727_0" function="internal">
        <lane id=":370205727_0_0" index="0" disallow="tram rail_urban rail rail_electric rail_fast ship container cable_car subway aircraft wheelchair scooter drone" speed="3.90" length="2.63" shape="1219.31,602.54 1219.84,602.05 1220.08,601.51 1220.03,600.92 1219.69,600.28"/>
        <lane id=":370205727_0_1" index="1" disallow="tram rail_urban rail rail_electric rail_fast ship container cable_car subway aircraft wheelchair scooter drone" speed="6.07" length="7.89" shape="1221.12,605.17 1222.72,603.70 1223.44,602.08 1223.29,600.31 1222.27,598.39"/>
        <lane id=":370205727_0_2" index="2" disallow="tram rail_urban rail rail_electric rail_fast ship container cable_car subway aircraft wheelchair scooter drone" speed="7.65" length="13.15" shape="1222.94,607.80 1225.60,605.35 1226.80,602.64 1226.55,599.70 1224.86,596.50"/>
    </edge>
    <edge id=":370205729_0" function="internal">
        <lane id=":370205729_0_0" index="0" disallow="tram rail_urban rail rail_electric rail_fast ship container cable_car subway aircraft wheelchair scooter drone" speed="6.53" length="8.82" shape="1045.71,340.22 1044.05,338.49 1042.22,337.69 1040.21,337.80 1038.03,338.84"/>
    </edge>
    <edge id=":370205729_1" function="internal">
        <lane id=":370205729_1_0" index="0" disallow="tram rail_urban rail rail_electric rail_fast ship container cable_car subway aircraft wheelchair scooter drone" speed="16.67" length="9.29" shape="1045.71,340.22 1040.35,332.46"/>
        <lane id=":370205729_1_1" index="1" disallow="tram rail_urban rail rail_electric rail_fast ship container cable_car subway aircraft wheelchair scooter drone" speed="16.67" length="9.29" shape="1048.31,338.36 1043.03,330.70"/>
        <lane id=":370205729_1_2" index="2" disallow="tram rail_urban rail rail_electric rail_fast ship container cable_car subway aircraft wheelchair scooter drone" speed="16.67" length="9.29" shape="1050.91,336.49 1045.71,328.95"/>
    </edge>
    <edge id=":370205736_0" function="internal">
        <lane id=":370205736_0_0" index="0" disallow="tram rail_urban rail rail_electric rail_fast ship container cable_car subway aircraft wheelchair scooter drone" speed="6.53" length="9.00" shape="1069.14,314.71 1067.27,316.34 1066.36,318.17 1066.41,320.20 1067.41,322.43"/>
    </edge>
    <edge id=":370205736_1" function="internal">
        <lane id=":370205736_1_0" index="0" disallow="tram rail_urban rail rail_electric rail_fast ship container cable_car subway aircraft wheelchair scooter drone" speed="16.67" length="9.94" shape="1062.19,314.04 1067.41,322.43"/>
        <lane id=":370205736_1_1" index="1" disallow="tram rail_urban rail rail_electric rail_fast ship container cable_car subway aircraft wheelchair scooter drone" speed="16.67" length="9.94" shape="1059.46,315.70 1064.70,324.15"/>
        <lane id=":370205736_1_2" index="2" disallow="tram rail_urban rail rail_electric rail_fast ship container cable_car subway aircraft wheelchair scooter drone" speed="16.67" length="9.94" shape="1056.72,317.36 1062.00,325.86"/>
    </edge>
    <edge id=":370205755_0" function="internal">
        <lane id=":370205755_0_0" index="0" disallow="tram rail_urban rail rail_electric rail_fast ship container cable_car subway aircraft wheelchair scooter drone" speed="6.52" length="8.93" shape="101.34,760.26 99.52,761.90 98.64,763.73 98.71,765.75 99.72,767.96"/>
        <lane id=":370205755_0_1" index="1" disallow="tram rail_urban rail rail_electric rail_fast ship container cable_car subway aircraft wheelchair scooter drone" speed="8.01" length="14.02" shape="99.56,757.61 96.70,760.17 95.33,763.04 95.44,766.21 97.02,769.69"/>
    </edge>
    <edge id=":370205755_2" function="internal">
        <lane id=":370205755_2_0" index="0" disallow="tram rail_urban rail rail_electric rail_fast ship container cable_car subway aircraft wheelchair scooter drone" speed="16.67" length="14.11" shape="91.88,756.12 99.72,767.96"/>