<?xml version="1.0" encoding="UTF-8"?>

<!-- generated on 2026-07-16 00:38:31.621300 by Eclipse SUMO randomTrips.py v1.27.1
<configuration>
    <net-file value="belem.net.xml"/>
    <route-file value="rotas.rou.xml"/>
    <fringe-factor value="10"/>
    <period value="0.85"/>
</configuration>
-->

<routes xmlns:xsi="http://www.w3.org/2001/XMLSchema-instance" xsi:noNamespaceSchemaLocation="http://sumo.dlr.de/xsd/routes_file.xsd">
    <trip id="0" depart="0.00" from="407148734#0" to="-394515874#1"/>
    <trip id="1" depart="0.85" from="143173610#0" to="1098103533"/>
    <trip id="2" depart="1.70" from="664871813#0" to="-993713961#1"/>
    <trip id="3" depart="2.55" from="145341885#0" to="-394515875"/>
    <trip id="4" depart="3.40" from="-974590281" to="145341879#1"/>
    <trip id="5" depart="4.25" from="-1083921692" to="1098103533"/>
    <trip id="6" depart="5.10" from="407148734#0" to="145341879#2"/>
    <trip id="7" depart="5.95" from="-974590281" to="207073941#0"/>
    <trip id="8" depart="6.80" from="542000905#0" to="-127327262#0"/>
    <trip id="9" depart="7.65" from="145341872" to="1083921692"/>
    <trip id="10" depart="8.50" from="993713961#0" to="143173600#0"/>
    <trip id="11" depart="9.35" from="-1098103533" to="-993713961#1"/>
    <trip id="12" depart="10.20" from="607763868#2" to="32866078"/>
    <trip id="13" depart="11.05" from="384994567#1" to="974590281"/>
    <trip id="14" depart="11.90" from="145341872" to="145341879#2"/>
    <trip id="15" depart="12.75" from="542000905#0" to="384994567#2"/>
    <trip id="16" depart="13.60" from="607763870#0" to="164018894#2"/>
    <trip id="17" depart="14.45" from="127327262#0" to="143173598#0"/>
    <trip id="18" depart="15.30" from="-1098103533" to="127327261"/>
    <trip id="19" depart="16.15" from="-127327262#0" to="143173598#0"/>
    <trip id="20" depart="17.00" from="407148734#0" to="143173604#4"/>
    <trip id="21" depart="17.85" from="145341872" to="1098103533"/>
    <trip id="22" depart="18.70" from="143173609#0" to="974590281"/>
    <trip id="23" depart="19.55" from="407148734#0" to="384994567#0"/>
    <trip id="24" depart="20.40" from="-40566493" to="143173609#4"/>
    <trip id="25" depart="21.25" from="993713961#0" to="384994573#0"/>
    <trip id="26" depart="22.10" from="607763868#1" to="407148740#0"/>
    <trip id="27" depart="22.95" from="127327262#0" to="-394515875"/>
    <trip id="28" depart="23.80" from="144165458#2" to="143173598#0"/>
    <trip id="29" depart="24.65" from="-974590281" to="974590281"/>
    <trip id="30" depart="25.50" from="650637874#1" to="143173600#0"/>
    <trip id="31" depart="26.35" from="407148734#0" to="143173621"/>
    <trip id="32" depart="27.20" from="143173609#0" to="127327263"/>
    <trip id="33" depart="28.05" from="384994573#0" to="143173598#0"/>
    <trip id="34" depart="28.90" from="145341885#0" to="1098103533"/>
    <trip id="35" depart="29.75" from="993713963#0" to="145341879#2"/>
    <trip id="36" depart="30.60" from="-127327263" to="384994569#3"/>
    <trip id="37" depart="31.45" from="542000905#0" to="143173621"/>
    <trip id="38" depart="32.30" from="-1098103533" to="143173609#4"/>
    <trip id="39" depart="33.15" from="993713963#0" to="145341879#2"/>
    <trip id="40" depart="34.00" from="993713961#0" to="607763870#1"/>
    <trip id="41" depart="34.85" from="407148734#1" to="145341879#2"/>
    <trip id="42" depart="35.70" from="143173609#0" to="384994573#2"/>
    <trip id="43" depart="36.55" from="-127327263" to="143173621"/>
    <trip id="44" depart="37.40" from="164018894#1" to="974590281"/>
    <trip id="45" depart="38.25" from="650637874#1" to="143173598#0"/>
    <trip id="46" depart="39.10" from="265801394#0" to="1083921692"/>
    <trip id="47" depart="39.95" from="664871813#0" to="607763870#1"/>
    <trip id="48" depart="40.80" from="144165458#2" to="384994573#0"/>
    <trip id="49" depart="41.65" from="40566492" to="1083921692"/>
    <trip id="50" depart="42.50" from="542000903#0" to="145341879#2"/>
    <trip id="51" depart="43.35" from="542000903#6" to="145341879#2"/>
    <trip id="52" depart="44.20" from="-1083921692" to="143173600#0"/>
    <trip id="53" depart="45.05" from="-1083921692" to="651807443#2"/>
    <trip id="54" depart="45.90" from="651807443#0" to="607763868#0"/>
    <trip id="55" depart="46.75" from="144165458#2" to="-40566492"/>
    <trip id="56" depart="47.60" from="651807443#0" to="974590281"/>
    <trip id="57" depart="48.45" from="542000903#4" to="-993713961#1"/>
    <trip id="58" depart="49.30" from="265801394#0" to="145341879#2"/>
    <trip id="59" depart="50.15" from="143173609#0" to="607763870#1"/>
    <trip id="60" depart="51.00" from="145341885#0" to="1098103533"/>
    <trip id="61" depart="51.85" from="-974590281" to="143173600#0"/>
    <trip id="62" depart="52.70" from="993713962" to="394515874#0"/>
    <trip id="63" depart="53.55" from="145341885#2" to="145341879#2"/>
    <trip id="64" depart="54.40" from="-394515874#1" to="1098103533"/>
    <trip id="65" depart="55.25" from="145341872" to="207073941#0"/>
    <trip id="66" depart="56.10" from="127327262#1" to="1098103533"/>
    <trip id="67" depart="56.95" from="-1098103533" to="384994569#4"/>
    <trip id="68" depart="57.80" from="127327262#0" to="607763870#1"/>
    <trip id="69" depart="58.65" from="-974590281" to="-993713961#1"/>
    <trip id="70" depart="59.50" from="992786135#0" to="164018894#0"/>
    <trip id="71" depart="60.35" from="207073941#5" to="43196344#0"/>
    <trip id="72" depart="61.20" from="542000905#0" to="1098103533"/>
    <trip id="73" depart="62.05" from="-127327261" to="143173621"/>
    <trip id="74" depart="62.90" from="993713961#0" to="-993713961#1"/>
    <trip id="75" depart="63.75" from="145341885#0" to="143173600#0"/>
    <trip id="76" depart="64.60" from="607763870#0" to="127327263"/>
    <trip id="77" depart="65.45" from="145341885#0" to="143173598#0"/>
    <trip id="78" depart="66.30" from="143173604#0" to="651807443#0"/>
    <trip id="79" depart="67.15" from="145341885#3" to="607763870#1"/>
    <trip id="80" depart="68.00" from="993713963#0" to="607763868#1"/>
    <trip id="81" depart="68.85" from="993713961#0" to="651807443#2"/>
    <trip id="82" depart="69.70" from="607763868#2" to="1083921692"/>
    <trip id="83" depart="70.55" from="265801394#0" to="1098103533"/>
    <trip id="84" depart="71.40" from="145341872" to="992786137"/>
    <trip id="85" depart="72.25" from="143173609#0" to="43196344#0"/>
    <trip id="86" depart="73.10" from="164018894#1" to="143173621"/>
    <trip id="87" depart="73.95" from="993713961#0" to="993713963#0"/>
    <trip id="88" depart="74.80" from="-40566493" to="143173598#0"/>
    <trip id="89" depart="75.65" from="993713961#0" to="164018894#2"/>
    <trip id="90" depart="76.50" from="-1098103533" to="164020090#0"/>
    <trip id="91" depart="77.35" from="265801394#0" to="607763870#0"/>
    <trip id="92" depart="78.20" from="-40566493" to="974590281"/>
    <trip id="93" depart="79.05" from="-1098103533" to="1098103533"/>
    <trip id="94" depart="79.90" from="40566492" to="40566448#1"/>
    <trip id="95" depart="80.75" from="127327263" to="-993713961#1"/>
    <trip id="96" depart="81.60" from="664871813#0" to="127327262#1"/>
    <trip id="97" depart="82.45" from="40566492" to="384994567#2"/>
    <trip id="98" depart="83.30" from="145341885#0" to="164020090#0"/>
    <trip id="99" depart="84.15" from="265801394#1" to="974590281"/>
    <trip id="100" depart="85.00" from="127327263" to="143173621"/>
    <trip id="101" depart="85.85" from="407148734#0" to="143173598#0"/>
    <trip id="102" depart="86.70" from="144165458#2" to="40566493"/>
    <trip id="103" depart="87.55" from="993713963#0" to="993713963#0"/>
    <trip id="104" depart="88.40" from="-1098103533" to="1098103533"/>
    <trip id="105" depart="89.25" from="143173609#0" to="974590281"/>
    <trip id="106" depart="90.10" from="651807443#0" to="607763870#1"/>
    <trip id="107" depart="90.95" from="145341872" to="1083921692"/>
    <trip id="108" depart="91.80" from="40566492" to="992786137"/>
    <trip id="109" depart="92.65" from="407148734#0" to="-127327262#0"/>
    <trip id="110" depart="93.50" from="542000905#0" to="143173598#0"/>
    <trip id="111" depart="94.35" from="407148734#0" to="974590281"/>
    <trip id="112" depart="95.20" from="-40566493" to="-993713961#1"/>
    <trip id="113" depart="96.05" from="-127327262#1" to="145341879#2"/>
    <trip id="114" depart="96.90" from="143173610#0" to="32866078"/>
    <trip id="115" depart="97.75" from="444687390#0" to="1098103533"/>
    <trip id="116" depart="98.60" from="407148734#0" to="143173598#0"/>
    <trip id="117" depart="99.45" from="265801394#0" to="607763870#1"/>
    <trip id="118" depart="100.30" from="607763868#2" to="-993713961#1"/>
    <trip id="119" depart="101.15" from="145341885#0" to="143173598#0"/>
    <trip id="120" depart="102.00" from="-1083921692" to="407148734#2"/>
    <trip id="121" depart="102.85" from="407148734#0" to="143173598#0"/>
    <trip id="122" depart="103.70" from="444687390#0" to="145341879#2"/>
    <trip id="123" depart="104.55" from="145341885#0" to="-127327262#0"/>
    <trip id="124" depart="105.40" from="-1098103533" to="607763870#1"/>
    <trip id="125" depart="106.25" from="664871813#0" to="145341879#2"/>
    <trip id="126" depart="107.10" from="542000905#0" to="164020090#0"/>
    <trip id="127" depart="107.95" from="-40566493" to="-993713961#1"/>
    <trip id="128" depart="108.80" from="144165458#2" to="607763870#1"/>
    <trip id="129" depart="109.65" from="542000905#0" to="607763870#1"/>
    <trip id="130" depart="110.50" from="664871813#0" to="1098103533"/>
    <trip id="131" depart="111.35" from="143173604#0" to="-993713961#1"/>
    <trip id="132" depart="112.20" from="542000903#7" to="607763870#1"/>
    <trip id="133" depart="113.05" from="145341885#0" to="384994567#2"/>
    <trip id="134" depart="113.90" from="-40566493" to="651807443#2"/>
    <trip id="135" depart="114.75" from="650637872" to="974590281"/>
    <trip id="136" depart="115.60" from="542000905#0" to="607763870#1"/>
    <trip id="137" depart="116.45" from="144165458#4" to="651807443#2"/>
    <trip id="138" depart="117.30" from="542000905#0" to="607763870#1"/>
    <trip id="139" depart="118.15" from="542000905#0" to="143173598#0"/>
    <trip id="140" depart="119.00" from="542000904#0" to="-993713961#1"/>
    <trip id="141" depart="119.85" from="650637874#0" to="607763870#1"/>
    <trip id="142" depart="120.70" from="127327261" to="542000903#6"/>
    <trip id="143" depart="121.55" from="164020090#0" to="143173599#0"/>
    <trip id="144" depart="122.40" from="542000905#0" to="1098103533"/>
    <trip id="145" depart="123.25" from="-1083921692" to="1098103533"/>
    <trip id="146" depart="124.10" from="144165458#3" to="607763870#1"/>
    <trip id="147" depart="124.95" from="993713961#0" to="143173598#0"/>
    <trip id="148" depart="125.80" from="407148734#0" to="143173621"/>
    <trip id="149" depart="126.65" from="993713961#0" to="145341879#2"/>
    <trip id="150" depart="127.50" from="992786137" to="-993713961#1"/>
    <trip id="151" depart="128.35" from="993713961#0" to="1083921692"/>
    <trip id="152" depart="129.20" from="993713961#0" to="143173598#0"/>
    <trip id="153" depart="130.05" from="-127327263" to="143173621"/>
    <trip id="154" depart="130.90" from="444687390#0" to="143173600#0"/>
    <trip id="155" depart="131.75" from="40566492" to="145341879#2"/>
    <trip id="156" depart="132.60" from="-1083921692" to="651807443#0"/>
    <trip id="157" depart="133.45" from="407148734#0" to="143173600#0"/>
    <trip id="158" depart="134.30" from="144165458#2" to="607763869#0"/>
    <trip id="159" depart="135.15" from="444687390#0" to="143173598#0"/>
    <trip id="160" depart="136.00" from="144165458#2" to="143173621"/>
    <trip id="161" depart="136.85" from="145341885#0" to="143173598#0"/>
    <trip id="162" depart="137.70" from="-40566493" to="143173621"/>
    <trip id="163" depart="138.55" from="664871813#0" to="384994567#1"/>
    <trip id="164" depart="139.40" from="144165458#2" to="145341879#2"/>
    <trip id="165" depart="140.25" from="-1083921692" to="143173598#0"/>
    <trip id="166" depart="141.10" from="145341885#0" to="164018894#2"/>
    <trip id="167" depart="141.95" from="145341885#3" to="1098103533"/>
    <trip id="168" depart="142.80" from="207073941#5" to="607763870#1"/>
    <trip id="169" depart="143.65" from="542000905#0" to="1083921692"/>
    <trip id="170" depart="144.50" from="-1098103533" to="145341879#2"/>
    <trip id="171" depart="145.35" from="40566492" to="143173600#0"/>
    <trip id="172" depart="146.20" from="407148734#0" to="1098103533"/>
    <trip id="173" depart="147.05" from="-974590281" to="-394515874#0"/>
    <trip id="174" depart="147.90" from="145341885#0" to="384994569#3"/>
    <trip id="175" depart="148.75" from="265801394#0" to="127327262#1"/>
    <trip id="176" depart="149.60" from="407148734#0" to="-127327262#0"/>
    <trip id="177" depart="150.45" from="444687390#0" to="407148734#2"/>
    <trip id="178" depart="151.30" from="-127327262#1" to="143173621"/>
    <trip id="179" depart="152.15" from="-974590281" to="974590281"/>
    <trip id="180" depart="153.00" from="265801394#0" to="-40566492"/>
    <trip id="181" depart="153.85" from="143173604#0" to="607763869#0"/>
    <trip id="182" depart="154.70" from="164018894#2" to="542000903#0"/>
    <trip id="183" depart="155.55" from="407148734#0" to="992786137"/>
    <trip id="184" depart="156.40" from="40566492" to="974590281"/>
    <trip id="185" depart="157.25" from="664871813#0" to="384994567#1"/>
    <trip id="186" depart="158.10" from="444687390#0" to="145341879#1"/>
    <trip id="187" depart="158.95" from="542000905#0" to="145341879#2"/>
    <trip id="188" depart="159.80" from="265801394#0" to="143173598#0"/>
    <trip id="189" depart="160.65" from="143173603#0" to="384994573#0"/>
    <trip id="190" depart="161.50" from="542000903#4" to="145341879#2"/>
    <trip id="191" depart="162.35" from="40566492" to="143173598#0"/>
    <trip id="192" depart="163.20" from="-1098103533" to="143173598#0"/>
    <trip id="193" depart="164.05" from="143173609#4" to="143173600#0"/>
    <trip id="194" depart="164.90" from="384994567#2" to="1083921692"/>
    <trip id="195" depart="165.75" from="145341885#0" to="145341879#2"/>
    <trip id="196" depart="166.60" from="145341885#0" to="1098103533"/>
    <trip id="197" depart="167.45" from="145341885#0" to="607763870#1"/>
    <trip id="198" depart="168.30" from="40566448#0" to="40566448#1"/>
    <trip id="199" depart="169.15" from="607763869#0" to="407148734#1"/>
    <trip id="200" depart="170.00" from="145341879#0" to="-127327262#0"/>
    <trip id="201" depart="170.85" from="607763868#3" to="974590281"/>
    <trip id="202" depart="171.70" from="384994569#0" to="32866078"/>
    <trip id="203" depart="172.55" from="-974590281" to="1098103533"/>
    <trip id="204" depart="173.40" from="145341885#0" to="-394515874#1"/>
    <trip id="205" depart="174.25" from="145341885#0" to="1083921692"/>
    <trip id="206" depart="175.10" from="207073941#0" to="-993713961#1"/>
    <trip id="207" depart="175.95" from="40566492" to="-394515874#1"/>
    <trip id="208" depart="176.80" from="145341885#0" to="145341885#3"/>
    <trip id="209" depart="177.65" from="-1083921692" to="384994573#2"/>
    <trip id="210" depart="178.50" from="-40566493" to="144165458#5"/>
    <trip id="211" depart="179.35" from="-1098103533" to="143173609#0"/>
    <trip id="212" depart="180.20" from="-974590281" to="143173600#0"/>
    <trip id="213" depart="181.05" from="542000903#0" to="143173609#0"/>
    <trip id="214" depart="181.90" from="444687390#1" to="607763868#0"/>
    <trip id="215" depart="182.75" from="-1083921692" to="145341879#2"/>
    <trip id="216" depart="183.60" from="993713963#0" to="143173600#0"/>
    <trip id="217" depart="184.45" from="407148734#0" to="407148740#1"/>
    <trip id="218" depart="185.30" from="993713961#0" to="1098103533"/>
    <trip id="219" depart="186.15" from="-1083921692" to="1083921692"/>
    <trip id="220" depart="187.00" from="384994573#2" to="1098103533"/>
    <trip id="221" depart="187.85" from="407148740#1" to="407148734#1"/>
    <trip id="222" depart="188.70" from="-40566493" to="384994567#0"/>
    <trip id="223" depart="189.55" from="444687390#0" to="-993713961#1"/>
    <trip id="224" depart="190.40" from="542000905#0" to="974590281"/>
    <trip id="225" depart="191.25" from="-127327263" to="-394515874#1"/>
    <trip id="226" depart="192.10" from="144165458#2" to="40566448#1"/>
    <trip id="227" depart="192.95" from="993713961#0" to="143173621"/>
    <trip id="228" depart="193.80" from="407148740#0" to="384994569#3"/>
    <trip id="229" depart="194.65" from="-127327262#0" to="407148734#2"/>
    <trip id="230" depart="195.50" from="-394515874#1" to="992786135#0"/>
    <trip id="231" depart="196.35" from="542000903#7" to="143173600#0"/>
    <trip id="232" depart="197.20" from="145341885#0" to="143173604#6"/>
    <trip id="233" depart="198.05" from="265801394#0" to="143173600#0"/>
    <trip id="234" depart="198.90" from="607763868#2" to="542000903#7"/>
    <trip id="235" depart="199.75" from="-127327262#1" to="974590281"/>
    <trip id="236" depart="200.60" from="407148734#0" to="607763868#0"/>
    <trip id="237" depart="201.45" from="444687390#0" to="143173621"/>
    <trip id="238" depart="202.30" from="444687390#0" to="974590281"/>
    <trip id="239" depart="203.15" from="143173609#4" to="542000903#5"/>
    <trip id="240" depart="204.00" from="143173609#4" to="607763869#0"/>
    <trip id="241" depart="204.85" from="542000905#0" to="-993713961#1"/>
    <trip id="242" depart="205.70" from="651807443#0" to="127327262#1"/>
    <trip id="243" depart="206.55" from="164020090#0" to="384994567#0"/>
    <trip id="244" depart="207.40" from="145341872" to="-394515874#1"/>
    <trip id="245" depart="208.25" from="607763868#3" to="1083921692"/>
    <trip id="246" depart="209.10" from="-974590281" to="444687421#0"/>
    <trip id="247" depart="209.95" from="145341872" to="607763870#1"/>
    <trip id="248" depart="210.80" from="43196344#0" to="143173598#0"/>
    <trip id="249" depart="211.65" from="-1083921692" to="974590281"/>
    <trip id="250" depart="212.50" from="265801394#0" to="40566493"/>
    <trip id="251" depart="213.35" from="407148740#0" to="394515874#0"/>
    <trip id="252" depart="214.20" from="265801394#0" to="444687390#1"/>
    <trip id="253" depart="215.05" from="-1098103533" to="1098103533"/>
    <trip id="254" depart="215.90" from="407148740#0" to="143173600#0"/>
    <trip id="255" depart="216.75" from="384994567#0" to="143173621"/>
    <trip id="256" depart="217.60" from="444687390#0" to="143173600#0"/>
    <trip id="257" depart="218.45" from="43196344#0" to="143173598#0"/>
    <trip id="258" depart="219.30" from="143173604#0" to="-993713961#1"/>
    <trip id="259" depart="220.15" from="-974590281" to="-993713961#1"/>
    <trip id="260" depart="221.00" from="-974590281" to="1098103533"/>
    <trip id="261" depart="221.85" from="265801394#0" to="40566493"/>
    <trip id="262" depart="222.70" from="993713961#0" to="145341879#2"/>
    <trip id="263" depart="223.55" from="144165458#2" to="-993713961#1"/>
    <trip id="264" depart="224.40" from="-974590281" to="1098103533"/>
    <trip id="265" depart="225.25" from="-974590281" to="-127327262#1"/>
    <trip id="266" depart="226.10" from="384994567#0" to="143173598#0"/>
    <trip id="267" depart="226.95" from="993713961#0" to="145341879#2"/>
    <trip id="268" depart="227.80" from="407148740#1" to="-993713961#1"/>
    <trip id="269" depart="228.65" from="650637874#0" to="164018894#1"/>
    <trip id="270" depart="229.50" from="542000905#0" to="143173621"/>
    <trip id="271" depart="230.35" from="-1098103533" to="384994569#3"/>
    <trip id="272" depart="231.20" from="-1098103533" to="1083921692"/>
    <trip id="273" depart="232.05" from="384994573#0" to="143173599#0"/>
    <trip id="274" depart="232.90" from="993713962" to="-993713961#1"/>
    <trip id="275" depart="233.75" from="542000903#0" to="384994567#0"/>
    <trip id="276" depart="234.60" from="542000905#0" to="1098103533"/>
    <trip id="277" depart="235.45" from="265801394#1" to="144165458#5"/>
    <trip id="278" depart="236.30" from="145341885#3" to="607763870#1"/>
    <trip id="279" depart="237.15" from="993713961#0" to="143173599#0"/>
    <trip id="280" depart="238.00" from="40566492" to="384994567#0"/>
    <trip id="281" depart="238.85" from="444687390#0" to="974590281"/>
    <trip id="282" depart="239.70" from="-974590281" to="1098103533"/>
    <trip id="283" depart="240.55" from="407148734#0" to="1083921692"/>
    <trip id="284" depart="241.40" from="40566492" to="143173598#0"/>
    <trip id="285" depart="242.25" from="407148734#2" to="651807443#0"/>
    <trip id="286" depart="243.10" from="542000904#0" to="384994569#0"/>
    <trip id="287" depart="243.95" from="407148734#0" to="974590281"/>
    <trip id="288" depart="244.80" from="145341885#0" to="145341879#2"/>
    <trip id="289" depart="245.65" from="-40566493" to="143173600#0"/>
    <trip id="290" depart="246.50" from="444687390#0" to="164018894#0"/>
    <trip id="291" depart="247.35" from="144165458#2" to="-993713961#1"/>
    <trip id="292" depart="248.20" from="992786137" to="145341879#0"/>
    <trip id="293" depart="249.05" from="265801394#0" to="-40566492"/>
    <trip id="294" depart="249.90" from="-1083921692" to="143173621"/>
    <trip id="295" depart="250.75" from="144165458#2" to="127327263"/>
    <trip id="296" depart="251.60" from="-1098103533" to="974590281"/>
    <trip id="297" depart="252.45" from="607763868#0" to="164018894#1"/>
    <trip id="298" depart="253.30" from="993713961#0" to="993713963#0"/>
    <trip id="299" depart="254.15" from="407148734#0" to="143173598#0"/>
    <trip id="300" depart="255.00" from="207073941#5" to="394515874#1"/>
    <trip id="301" depart="255.85" from="664871813#0" to="1083921692"/>
    <trip id="302" depart="256.70" from="265801394#0" to="-993713961#1"/>
    <trip id="303" depart="257.55" from="145341872" to="143173600#0"/>
    <trip id="304" depart="258.40" from="407148734#0" to="607763870#1"/>
    <trip id="305" depart="259.25" from="144165458#2" to="974590281"/>
    <trip id="306" depart="260.10" from="542000905#0" to="145341879#2"/>
    <trip id="307" depart="260.95" from="164018894#1" to="143173600#0"/>
    <trip id="308" depart="261.80" from="144165458#2" to="974590281"/>
    <trip id="309" depart="262.65" from="145341885#0" to="145341879#2"/>
    <trip id="310" depart="263.50" from="993713961#0" to="394515875"/>
    <trip id="311" depart="264.35" from="384994567#2" to="143173621"/>
    <trip id="312" depart="265.20" from="-974590281" to="143173604#0"/>
    <trip id="313" depart="266.05" from="444687421#0" to="384994569#0"/>
    <trip id="314" depart="266.90" from="444687421#0" to="1098103533"/>
    <trip id="315" depart="267.75" from="384994569#0" to="651807443#2"/>
    <trip id="316" depart="268.60" from="-394515874#1" to="974590281"/>
    <trip id="317" depart="269.45" from="40566492" to="127327262#0"/>
    <trip id="318" depart="270.30" from="-40566493" to="145341879#2"/>
    <trip id="319" depart="271.15" from="384994569#3" to="-993713961#1"/>
    <trip id="320" depart="272.00" from="993713962" to="650637874#0"/>
    <trip id="321" depart="272.85" from="164020090#0" to="-993713961#1"/>
    <trip id="322" depart="273.70" from="542000905#0" to="145341879#0"/>
    <trip id="323" depart="274.55" from="444687390#0" to="145341879#2"/>
    <trip id="324" depart="275.40" from="143173610#0" to="607763868#1"/>
    <trip id="325" depart="276.25" from="993713961#0" to="127327262#1"/>
    <trip id="326" depart="277.10" from="384994569#3" to="143173609#4"/>
    <trip id="327" depart="277.95" from="664871813#0" to="145341879#2"/>
    <trip id="328" depart="278.80" from="651807443#0" to="607763870#1"/>
    <trip id="329" depart="279.65" from="143173610#0" to="444687390#1"/>
    <trip id="330" depart="280.50" from="145341885#0" to="974590281"/>
    <trip id="331" depart="281.35" from="265801394#0" to="542000903#7"/>
    <trip id="332" depart="282.20" from="144165458#2" to="143173598#0"/>
    <trip id="333" depart="283.05" from="40566492" to="993713963#0"/>
    <trip id="334" depart="283.90" from="265801394#0" to="1083921692"/>
    <trip id="335" depart="284.75" from="384994567#1" to="143173600#0"/>
    <trip id="336" depart="285.60" from="384994569#3" to="145341879#2"/>
    <trip id="337" depart="286.45" from="164018894#1" to="143173600#0"/>
    <trip id="338" depart="287.30" from="394515874#0" to="127327261"/>
    <trip id="339" depart="288.15" from="542000905#0" to="143173610#0"/>
    <trip id="340" depart="289.00" from="407148734#0" to="542000903#7"/>
    <trip id="341" depart="289.85" from="-1083921692" to="145341879#0"/>
    <trip id="342" depart="290.70" from="40566492" to="607763870#1"/>
    <trip id="343" depart="291.55" from="444687390#0" to="143173621"/>
    <trip id="344" depart="292.40" from="407148734#0" to="1083921692"/>
    <trip id="345" depart="293.25" from="207073941#5" to="974590281"/>
    <trip id="346" depart="294.10" from="407148734#0" to="607763869#0"/>
    <trip id="347" depart="294.95" from="607763868#3" to="607763870#1"/>
    <trip id="348" depart="295.80" from="145341872" to="143173600#0"/>
    <trip id="349" depart="296.65" from="-1098103533" to="384994569#4"/>
    <trip id="350" depart="297.50" from="664871813#0" to="993713963#0"/>
    <trip id="351" depart="298.35" from="444687390#0" to="143173621"/>
    <trip id="352" depart="299.20" from="-127327261" to="384994569#4"/>
    <trip id="353" depart="300.05" from="407148740#0" to="607763870#1"/>
    <trip id="354" depart="300.90" from="-1083921692" to="444687421#0"/>
    <trip id="355" depart="301.75" from="144165458#2" to="143173609#0"/>
    <trip id="356" depart="302.60" from="-40566493" to="145341879#2"/>
    <trip id="357" depart="303.45" from="384994573#2" to="444687390#1"/>
    <trip id="358" depart="304.30" from="-40566493" to="-40566492"/>
    <trip id="359" depart="305.15" from="650637874#0" to="384994567#2"/>
    <trip id="360" depart="306.00" from="143173599#0" to="650637874#0"/>
    <trip id="361" depart="306.85" from="-40566493" to="144165458#5"/>
    <trip id="362" depart="307.70" from="143173604#4" to="143173598#0"/>
    <trip id="363" depart="308.55" from="-1083921692" to="542000903#4"/>
    <trip id="364" depart="309.40" from="145341872" to="207073941#0"/>
    <trip id="365" depart="310.25" from="407148734#0" to="143173621"/>
    <trip id="366" depart="311.10" from="143173604#0" to="607763868#3"/>
    <trip id="367" depart="311.95" from="-974590281" to="143173610#0"/>
    <trip id="368" depart="312.80" from="265801394#0" to="127327262#0"/>
    <trip id="369" depart="313.65" from="394515874#0" to="164018894#1"/>
    <trip id="370" depart="314.50" from="993713962" to="143173598#0"/>
    <trip id="371" depart="315.35" from="993713961#0" to="394515875"/>
    <trip id="372" depart="316.20" from="143173610#0" to="145341885#3"/>
    <trip id="373" depart="317.05" from="-1098103533" to="384994567#0"/>
    <trip id="374" depart="317.90" from="265801394#0" to="607763870#1"/>
    <trip id="375" depart="318.75" from="144165458#2" to="542000903#0"/>
    <trip id="376" depart="319.60" from="40566492" to="143173600#0"/>
    <trip id="377" depart="320.45" from="407148734#0" to="384994569#0"/>
    <trip id="378" depart="321.30" from="407148734#0" to="607763868#2"/>
    <trip id="379" depart="322.15" from="40566492" to="607763870#1"/>
    <trip id="380" depart="323.00" from="407148734#0" to="143173600#0"/>
    <trip id="381" depart="323.85" from="145341885#2" to="164018894#2"/>
    <trip id="382" depart="324.70" from="444687390#0" to="-993713961#1"/>
    <trip id="383" depart="325.55" from="144165458#2" to="40566493"/>
    <trip id="384" depart="326.40" from="-974590281" to="-993713961#1"/>
    <trip id="385" depart="327.25" from="384994567#1" to="974590281"/>
    <trip id="386" depart="328.10" from="384994567#0" to="650637874#0"/>
    <trip id="387" depart="328.95" from="542000905#0" to="143173598#0"/>
    <trip id="388" depart="329.80" from="145341872" to="-993713961#1"/>
    <trip id="389" depart="330.65" from="993713961#0" to="1083921692"/>
    <trip id="390" depart="331.50" from="993713961#0" to="607763870#1"/>
    <trip id="391" depart="332.35" from="444687390#0" to="974590281"/>
    <trip id="392" depart="333.20" from="993713961#0" to="542000903#4"/>
    <trip id="393" depart="334.05" from="145341872" to="444687390#1"/>
    <trip id="394" depart="334.90" from="-1083921692" to="145341879#2"/>
    <trip id="395" depart="335.75" from="407148734#0" to="164020090#0"/>
    <trip id="396" depart="336.60" from="542000905#0" to="974590281"/>
    <trip id="397" depart="337.45" from="-127327263" to="127327261"/>
    <trip id="398" depart="338.30" from="-1083921692" to="607763870#1"/>
    <trip id="399" depart="339.15" from="384994573#0" to="650637874#0"/>
    <trip id="400" depart="340.00" from="144165458#2" to="143173621"/>
    <trip id="401" depart="340.85" from="-40566493" to="974590281"/>
    <trip id="402" depart="341.70" from="144165458#2" to="144165458#5"/>
    <trip id="403" depart="342.55" from="-127327261" to="607763870#1"/>
    <trip id="404" depart="343.40" from="-40566493" to="144165458#5"/>
    <trip id="405" depart="344.25" from="993713961#0" to="143173621"/>
    <trip id="406" depart="345.10" from="444687390#0" to="1083921692"/>
    <trip id="407" depart="345.95" from="145341885#0" to="-993713961#1"/>
    <trip id="408" depart="346.80" from="265801394#0" to="143173621"/>
    <trip id="409" depart="347.65" from="993713961#0" to="-394515875"/>
    <trip id="410" depart="348.50" from="993713961#0" to="607763870#0"/>
    <trip id="411" depart="349.35" from="384994567#2" to="974590281"/>